#======================================================================

# CRYSTAL DATA

#----------------------------------------------------------------------

data_phase_1


_chemical_name_common                  'CeCuAl3 '
_cell_length_a                         4.25678(6)
_cell_length_b                         4.25678(6)
_cell_length_c                         10.63388(17)
_cell_angle_alpha                      90
_cell_angle_beta                       90
_cell_angle_gamma                      90
_space_group_name_H-M_alt              'I 4 m m'
_space_group_IT_number                 107

loop_
_space_group_symop_operation_xyz
   'x, y, z'
   '-x, -y, z'
   '-y, x, z'
   'y, -x, z'
   'x, -y, z'
   '-x, y, z'
   '-y, -x, z'
   'y, x, z'
   'x+1/2, y+1/2, z+1/2'
   '-x+1/2, -y+1/2, z+1/2'
   '-y+1/2, x+1/2, z+1/2'
   'y+1/2, -x+1/2, z+1/2'
   'x+1/2, -y+1/2, z+1/2'
   '-x+1/2, y+1/2, z+1/2'
   '-y+1/2, -x+1/2, z+1/2'
   'y+1/2, x+1/2, z+1/2'

loop_
   _atom_site_label
   _atom_site_occupancy
   _atom_site_fract_x
   _atom_site_fract_y
   _atom_site_fract_z
   _atom_site_adp_type
   _atom_site_U_iso_or_equiv
   _atom_site_type_symbol
   Ce1        1.0     0.000000      0.000000      0.000000     Uiso  0.005890 Ce
   Cu1        0.9250  0.000000      0.000000      0.63224(8)   Uiso  0.008300 Cu
   Al1        0.0750  0.000000      0.000000      0.63224(8)   Uiso  0.008300 Al
   Cu2        0.0440  0.000000      0.000000      0.40437(11)  Uiso  0.009700 Cu
   Al2        0.9560  0.000000      0.000000      0.40437(11)  Uiso  0.009700 Al
   Al3        0.9860  0.000000      0.500000      0.24981(9)   Uiso  0.007070 Al
