data_Fe3O4

_space_group_name_H-M_ref 'F d -3 m'
_space_group_IT_coordinate_system_code 2

_cell_length_a 8.57()
_cell_length_b 8.57
_cell_length_c 8.57
_cell_angle_alpha 90.0
_cell_angle_beta 90.0
_cell_angle_gamma 90.0

loop_
_atom_site_label
_atom_site_type_symbol
_atom_site_fract_x
_atom_site_fract_y
_atom_site_fract_z
_atom_site_occupancy
_atom_site_adp_type
_atom_site_wyckoff_symbol
_atom_site_u_iso_or_equiv
_atom_site_multiplicity
Fe3A Fe3+ 0.125 0.125 0.125 1.0 Uiso a 0.0 8
Fe3B Fe3+ 0.5 0.5 0.5 1.0 Uiso d 0.0 16
O O2- 0.25521 0.25521 0.25521 1.0 Uiso e 0.0 32

loop_
_atom_site_susceptibility_label
_atom_site_susceptibility_chi_type
_atom_site_susceptibility_chi_11
_atom_site_susceptibility_chi_22
_atom_site_susceptibility_chi_33
_atom_site_susceptibility_chi_12
_atom_site_susceptibility_chi_13
_atom_site_susceptibility_chi_23
Fe3A Cani -0.08601() -0.08601 -0.08601 0.0 0.0 0.0
Fe3B Cani 0.07840() 0.07840 0.07840 0.0 0.0 0.0

loop_
_atom_site_scat_label
_atom_site_scat_lande
_atom_site_scat_kappa
Fe3A 2.0 1.0
Fe3B 2.0 1.0
