data_Fe3O4

_space_group_IT_number 227
_space_group_IT_coordinate_system_code 2

_cell_length_a 8.36212()
_cell_length_b 8.56212
_cell_length_c 8.56212
_cell_angle_alpha 90.0
_cell_angle_beta  90.0
_cell_angle_gamma 90.0

loop_
_atom_site_label
_atom_site_type_symbol
_atom_site_fract_x
_atom_site_fract_y
_atom_site_fract_z
_atom_site_adp_type
_atom_site_U_iso_or_equiv
_atom_site_occupancy
Fe3A Fe3+ 0.12500 0.12500 0.12500 Uiso 0.0  1.0
Fe3B Fe3+ 0.50000 0.50000 0.50000 Uiso 0.0  1.0
O    O2-  0.25521 0.25521 0.25521 Uiso 0.0  1.0

loop_
_atom_site_scat_label
_atom_site_scat_lande
Fe3A 2.000
Fe3B 2.000

loop_
_atom_site_susceptibility_label
_atom_site_susceptibility_chi_type
_atom_site_susceptibility_chi_11
_atom_site_susceptibility_chi_22
_atom_site_susceptibility_chi_33
_atom_site_susceptibility_chi_12
_atom_site_susceptibility_chi_13
_atom_site_susceptibility_chi_23
Fe3A Cani -3.468     -3.468  -3.468   0.000   0.000   0.000
Fe3B Cani  3.041      3.041   3.041   0.000   0.000   0.000
