data_PbSO4

_space_group_IT_number 62
_space_group_IT_coordinate_system_code abc

_cell_length_a      8.477926
_cell_length_b      5.396823
_cell_length_c      6.958096
_cell_angle_alpha  90.0
_cell_angle_beta   90.0
_cell_angle_gamma  90.0

loop_
_atom_site_label
_atom_site_type_symbol
_atom_site_fract_x
_atom_site_fract_y
_atom_site_fract_z
_atom_site_adp_type
_atom_site_U_iso_or_equiv
_atom_site_occupancy
Pb  Pb  0.18724  0.25000  0.16615  Uiso  0.0000  1.0
S   S   0.06434  0.25000  0.68261  Uiso  0.0000  1.0
O1  O   0.90790  0.25000  0.59598  Uiso  0.0000  1.0
O2  O   0.19260  0.25000  0.54171  Uiso  0.0000  1.0
O3  O   0.08043  0.02893  0.80734  Uiso  0.0000  1.0
