data_PbSO4

_space_group_IT_number 62
_space_group_IT_coordinate_system_code abc

_cell_length_a      8.44(1)
_cell_length_b      5.40(1)
_cell_length_c      6.92(1)
_cell_angle_alpha  90.0
_cell_angle_beta   90.0
_cell_angle_gamma  90.0

loop_
_atom_site_label
_atom_site_type_symbol
_atom_site_fract_x
_atom_site_fract_y
_atom_site_fract_z
_atom_site_occupancy
_atom_site_adp_type
_atom_site_u_iso_or_equiv
Pb  Pb  0.18782  0.25     0.16741  1.0   Uiso 0.0
S   S   0.06450  0.25     0.68797  1.0   Uiso 0.0
O1  O   0.90924  0.25     0.59597  1.0   Uiso 0.0
O2  O   0.19198  0.25     0.54405  1.0   Uiso 0.0
O3  O   0.08112  0.02654  0.80888  1.0   Uiso 0.0
