global_ 



data_PbSO4 


_space_group_name_h-m_alt 'P n m a' 
_space_group_name_h-m_alt_description 'The extended international Hermann-Mauguin space-group symbol.' 
_space_group_it_number 62 
_space_group_name_h-m_ref 'P n m a' 
_space_group_it_coordinate_system_code abc 
_space_group_name_h-m_full 'P 21/n 21/m 21/a' 
_space_group_name_hall '-P 2ac 2n' 
_space_group_name_schoenflies D2h.16 
_space_group_point_group_h-m mmm 
_space_group_laue_class mmm 
_space_group_patterson_name_h-m 'P m m m' 
_space_group_centring_type P 
_space_group_bravais_type oP 
_space_group_crystal_system orthorhombic 
_cell_length_a 8.46585(25) 
_cell_length_b 5.38778(14) 
_cell_length_c 6.94700(21) 
_cell_angle_alpha 90.0 
_cell_angle_beta 90.0 
_cell_angle_gamma 90.0 

loop_ 
_atom_site_label  
_atom_site_type_symbol  
_atom_site_fract_x  
_atom_site_fract_y  
_atom_site_fract_z  
_atom_site_occupancy  
_atom_site_adp_type  
_atom_site_wyckoff_symbol  
_atom_site_u_iso_or_equiv  
_atom_site_multiplicity  
Pb Pb 0.18724 0.25 0.16615 1.0 Uiso c 0.0 4 
S S 0.06434 0.25 0.68261 1.0 Uiso c 0.0 4 
O1 O 0.9079 0.25 0.59598 1.0 Uiso c 0.0 4 
O2 O 0.1926 0.25 0.54171 1.0 Uiso c 0.0 4 
O3 O 0.08043 0.02893 0.80734 1.0 Uiso d 0.0 8 